
[model]
Program                           = D-Flow FM
Version                           = 1.2.41.63609
MDUFormatVersion                  = 1.06                                # File format version (do not edit this)
AutoStart                         = 2                                      # Autostart simulation after loading MDU (0: no, 1: autostart, 2: autostartstop)
ModelSpecific                     =                                                                  # Optional 'model specific ID', to enable certain custom runtime function calls (instead of via MDU name).

[geometry]
NetFile                           = Grevelingen_FM_grid_20190603_net.nc  # Unstructured grid file *_net.nc
GridEnclosureFile                 =                      # Enclosure file to clip outer parts from the grid *.pol
BedlevelFile                      =                      # Bedlevels points file e.g. *.xyz, only needed for bedlevtype not equal 3
DryPointsFile                     = ../../geometry/structures/Grevelingen-FM_BL_dry.pol# Dry points file *.xyz (third column dummy z values), or dry areas polygon file *.pol (third column 1/-1: inside/outside)
WaterLevIniFile                   =                      # Initial water levels sample file *.xyz
LandBoundaryFile                  =                      # Land boundaries file *.ldb, used for visualization
ThinDamFile                       = ../../geometry/structures/Grevelingen-FM_BL_thd.pli ../../geometry/structures/Grevelingen-FM_BL_fxw.pli# Polyline file *_thd.pli, containing thin dams
Cutcelllist                       =                      # File with names of cutcell polygons, e.g. cutcellpolygons.lst
FixedWeirFile                     =                      # Polyline file *_fxw.pliz, containing fixed weirs with rows x, y, crest level, left ground level, right ground level
PillarFile                        =                      # Polyline file *_pillar.pliz, containing four colums with x, y, diameter and Cd coefficient
Gulliesfile                       =                      # Polyline file *_gul.pliz, containing lowest bed level along talweg x, y, z level
Roofsfile                         =                      # Polyline file *_rof.pliz, containing roofgutter heights x, y, z level
VertplizFile                      =                      # Vertical layering file *_vlay.pliz with rows x, y, Z, first Z, nr of layers, second Z, layer type
ProflocFile                       =                      # Channel profile location file *_proflocation.xyz with rows x, y, z, profile number ref
ProfdefFile                       =                      # Channel profile definition file *_profdefinition.def with definition for all profile numbers
ProfdefxyzFile                    =                      # Channel profile definition file _profdefinition.def with definition for all profile numbers
Uniformwidth1D                    = 2.                                    # Uniform width for channel profiles not specified by profloc
Uniformheight1D                   = 3.                                    # Uniform height for channel profiles not specified by profloc
Uniformtyp1Dstreetinlets          = -2                                    # Uniform type street inlets
Uniformtyp1Droofgutterpipes       = -2                                    # Uniform type roof gutter pipes
StructureFile                     =                      # File *.ini containing list of structures (pumps, weirs, gates and general structures)
ManholeFile                       =                      # File *.ini containing manholes
PipeFile                          =                      # File *.pliz containing pipe-based 'culverts'
ShipdefFile                       =                      # File *.shd containing ship definitions
WaterLevIni                       = -0.18                              # Initial water level at missing s0 values
waterdepthini1D                   = 0.                                    # Initial waterdepth in 1D
BedlevUni                         = -5.                                  # Uniform bed level used at missing z values if BedlevType > 2
BedlevType                        = 3                                      # Bathymetry specification
                                                        # 1: at cell centers (from BathymetryFile)
                                                        # 2: at faces (from BathymetryFile)
                                                        # 3: at nodes, face levels mean of node values
                                                        # 4: at nodes, face levels min. of node values
                                                        # 5: at nodes, face levels max. of node values
                                                        # 6: at nodes, face levels max. of cell-center values
Blmeanbelow                       = -999.                              # If not -999d0, below this level the cell center bed level is the mean of surrouding net nodes
Blminabove                        = -999.                              # If not -999d0, above this level the cell center bed level is the min. of surrouding net nodes
Groundlayerthickness              = -999.                              # Only in pipes: groundlayer thickness (m)
PartitionFile                     =                      # Domain partition polygon file *_part.pol for parallel run
AngLat                            = 52.                                  # Angle of latitude S-N (deg), 0: no Coriolis
AngLon                            = 4.                                    # Angle of longitude E-W (deg), 0: Greenwich, used in solar heat flux computation.
Conveyance2D                      = -1                                    # -1: R=HU,0: R=H, 1: R=A/P, 2: K=analytic-1D conv, 3: K=analytic-2D conv
Slotw2D                           = 0.                                    # -
Sillheightmin                     = 0                                      # Weir treatment only if both sills larger than this value (m)
Makeorthocenters                  = 0                                      # Switch from circumcentres to orthocentres in geominit (i>=1: number of iterations, 0: do not use)
Dcenterinside                     = 1.                                    # Limit cell center (1.0: in cell, 0.0: on c/g)
Bamin                             = 1.d-6                              # Minimum grid cell area, in combination with cut cells
OpenBoundaryTolerance             = 3.                                    # Search tolerance factor between boundary polyline and grid cells, in cell size units
AllowBndAtBifurcation             = 0                                      # Allow 1d boundary node when connecting branch leads to bifurcation (1: yes, 0: no)
RenumberFlowNodes                 = 1                                      # Renumber the flow nodes (1: yes, 0: no)
Kmx                               = 36                                    # Maximum number of vertical layers
Layertype                         = 2                                      # Vertical layer type (1: all sigma, 2: all z, 3: use VertplizFile)
Numtopsig                         = 0                                      # Number of sigma layers in top of z-layer model
SigmaGrowthFactor                 = 1.                                    # Layer thickness growth factor from bed up
Dztop                             = 1.25                                # Z-layer thickness of layers above level Dztopuniabovez
StretchType                       = -1                                    # Type of layer stretching, 0 = uniform, 1 = user defined, 2 = fixed level double exponential
Floorlevtoplay                    = -0.25                              # Floor level of top layer
Dztopuniabovez                    = -9.                                  # Above this level layers will have uniform Dztop, below we use SigmaGrowthFactor

[numerics]
CFLMax                            = 0.7                                  # Maximum Courant number
Lincontin                         = 0                                      # Default 0; Set to 1 for linearizing d(Hu)/dx; link to AdvecType
AdvecType                         = 33                                    # Advection type (0: none, 1: Wenneker, 2: Wenneker q(uio-u), 3: Perot q(uio-u), 4: Perot q(ui-u), 5: Perot q(ui-u) without itself)
TimeStepType                      = 2                                      # Time step handling (0: only transport, 1: transport + velocity update, 2: full implicit step-reduce, 3: step-Jacobi, 4: explicit)
Icoriolistype                     = 5                                      # 0=No, 1=yes, if jsferic then spatially varying, if icoriolistype==6 then constant (anglat)
Limtyphu                          = 0                                      # Limiter type for waterdepth in continuity eqn. (0: none, 1: minmod, 2: van Leer, 3: Kooren, 4: monotone central)
Limtypmom                         = 4                                      # Limiter type for cell center advection velocity (0: none, 1: minmod, 2: van Leer, 3: Kooren, 4: monotone central)
Limtypsa                          = 4                                      # Limiter type for salinity transport (0: none, 1: minmod, 2: van Leer, 3: Kooren, 4: monotone central)
TransportMethod                   = 1                                      # Transport method (0: Herman's method, 1: transport module)
TransportTimestepping             = 1                                      # Timestepping method in Transport module, 0 = global, 1 = local (default)
Vertadvtypsal                     = 6                                      # Vertical advection type for salinity (0: none, 1: upwind explicit, 2: central explicit, 3: upwind implicit, 4: central implicit, 5: central implicit but upwind for neg. stratif., 6: higher order explicit, no Forester)
Vertadvtyptem                     = 6                                      # Vertical advection type for temperature (0: none, 1: upwind explicit, 2: central explicit, 3: upwind implicit, 4: central implicit, 5: central implicit but upwind for neg. stratif., 6: higher order explicit, no Forester)
Cffacver                          = 0.                                    # Factor for including (1-CFL) in HO term vertical   (0d0: no, 1d0: yes)
Jarhoxu                           = 2                                      # Inlcude density gradient in advection term (0: no, 1: yes, 2: Also in barotrop and baroclin pressure term)
Horadvtypzlayer                   = 0                                      # Horizontal advection treatment of z-layers (1: default, 2: sigma-like)
Zlayercenterbedvel                = 1                                      # reconstruction of center velocity at half closed bedcells (0=no, 1: copy bed link velocities)
Zlayeratubybob                    = 0                                      # Lowest connected cells governed by bob instead of by bL L/R
Icgsolver                         = 6                                      # Solver type (1: sobekGS_OMP, 2: sobekGS_OMPthreadsafe, 3: sobekGS, 4: sobekGS + Saadilud, 5: parallel/global Saad, 6: parallel/Petsc, 7: parallel/GS)
Maxdegree                         = 6                                      # Maximum degree in Gauss elimination
Noderivedtypes                    = 0                                      # 0=use der. types. , 1 = less, 2 = lesser, 5 = also dealloc der. types
FixedWeirScheme                   = 9                                      # Fixed weir scheme (0: none, 1: compact stencil, 2: whole tile lifted, full subgrid weir + factor)
FixedWeirContraction              = 1.                                    # Fixed weir flow width contraction factor
Fixedweirfrictscheme              = 1                                      # Fixed weir friction scheme (0: friction based on hu, 1: friction based on subgrid weir friction scheme)
Fixedweirtopwidth                 = 3.                                    # Uniform width of the groyne part of fixed weirs
Fixedweirtopfrictcoef             = -999.                              # Uniform friction coefficient of the groyne part of fixed weirs
Fixedweirtalud                    = 0.25                                # Uniform talud slope of fixed weirs
Izbndpos                          = 2                                      # Position of z boundary (0: D3Dflow, 1: on net boundary, 2: on specified polyline)
Tlfsmo                            = 3600.                              # Fourier smoothing time (s) on water level boundaries
Logprofatubndin                   = 1                                      # ubnds inflow: 0=uniform U1, 1 = log U1, 2 = user3D
Logprofkepsbndin                  = 0                                      # inflow: 0=0 keps, 1 = log keps inflow, 2 = log keps in and outflow
Slopedrop2D                       = 0.                                    # Apply drop losses only if local bed slope > Slopedrop2D, (<=0: no drop losses)
Drop3D                            = 1.                                    # Apply droplosses in 3D if z upwind below bob + 2/3 hu*drop3D
Chkadvd                           = 0.1                                  # Check advection terms if depth < chkadvdp, => less setbacks
Trsh_u1Lb                         = 0.                                    # 2D bedfriction in 3D below this threshold (m)
Epshstem                          = 1.d-3                              # Only compute heatflx + evap if depth > epshstem
Zwsbtol                           = 0.                                    # tolerance for zws(kb-1) at bed
Keepzlayeringatbed                = 1                                      #  bedlayerthickness = zlayerthickness at bed 0 or 1
Teta0                             = 0.55                                # Theta of time integration (0.5 < theta < 1)
Qhrelax                           = 1.d-2                              # Relaxation on Q-h open boundaries
Jbasqbnddownwindhs                = 0                                      # Water depth scheme at discharge boundaries (0: original hu, 1: downwind hs)
cstbnd                            = 0                                      # Delft-3D type velocity treatment near boundaries for small coastal models (1: yes, 0: no)
Maxitverticalforestersal          = 0                                      # Forester iterations for salinity (0: no vertical filter for salinity, > 0: max nr of iterations)
Maxitverticalforestertem          = 0                                      # Forester iterations for temperature (0: no vertical filter for temperature, > 0: max nr of iterations)
Turbulencemodel                   = 3                                      # Turbulence model (0: none, 1: constant, 2: algebraic, 3: k-epsilon, 4: k-tau)
Turbulenceadvection               = 3                                      # Turbulence advection (0: none, 3: horizontally explicit and vertically implicit)
Eddyviscositybedfacmax            = 0.                                    # Limit eddy viscosity at bed )
AntiCreep                         = 0                                      # Include anti-creep calculation (0: no, 1: yes)
Barocterm                         = 2                                      # (original = 1, current = 2 )
Maxwaterleveldiff                 = 0.                                    # upper bound (in m) on water level changes (<= 0: no bounds). Run will abort when violated.
Maxvelocitydiff                   = 0.                                    # upper bound (in m/s) on velocity changes (<= 0: no bounds). Run will abort when violated.
MinTimestepBreak                  = 0.                                    # smallest allowed timestep (in s), checked on a sliding average of several timesteps. Run will abort when violated.
Epshu                             = 1.d-4                              # Threshold water depth for wet and dry cells
SobekDFM_umin                     = 0.                                    # Minimal velocity treshold for weir losses in Sobek-DFM coupling.
SobekDFM_umin_method              = 0                                      # Method for minimal velocity treshold for weir losses in Sobek-DFM coupling.
SobekDFM_Minimal_1d2d_Embankment  = 1.d-2                              # Minimal crest height of 1D2D SOBEK-DFM embankments.
sobekDFM_relax                    = 0.1                                  # Relaxation factor for SOBEK-DFM coupling algorithm.
Vertadvtypmom                     = 6                                      # vertical advection for u1: 0: No, 3: Upwind implicit, 4: Central implicit, 5: QUICKEST implicit., 6: centerbased upwind expl
jaupwindsrc                       = 1                                      # 1st-order upwind advection at sources/sinks (1) or higher-order (0)
jasfer3D                          = 0                                      # corrections for spherical coordinates
vicouv_filter                     = 0.                                    # artificial viscosity for filtering (m2/s)
LocSaltLev                        = 1.                                    # salinity level for case of lock exchange
LocSaltMin                        = 5.                                    # minimum salinity for case of lock exchange
LocSaltMax                        = 10.                                  # maximum salinity for case of lock exchange
Numlimdt_baorg                    = 0                                      # if previous numlimdt > Numlimdt_baorg keep original cell area ba in cutcell
Baorgfracmin                      = 0.                                    # Cell area = max(orgcellarea*Baorgfracmin, cutcell area)

[physics]
UnifFrictCoef                     = 2.3d-2                            # Uniform friction coefficient (0: no friction)
UnifFrictType                     = 1                                      # Uniform friction type (0: Chezy, 1: Manning, 2: White-Colebrook, 3: idem, WAQUA style)
UnifFrictCoef1D                   = 2.3d-2                            # Uniform friction coefficient in 1D links (0: no friction)
UnifFrictCoef1D2D                 = 2.3d-2                            # Uniform friction coefficient in 1D links (0: no friction)
UnifFrictCoefLin                  = 0.                                    # Uniform linear friction coefficient (0: no friction)
UnifFrictCoef1DgrLay              = 5.d-2                              # Uniform ground layer friction coefficient for ocean models (m/s) (0: no friction)
Umodlin                           = 0.                                    # Linear friction umod, for ifrctyp=4,5,6
Vicouv                            = 0.1                                  # Uniform horizontal eddy viscosity (m2/s)
Dicouv                            = 0.1                                  # Uniform horizontal eddy diffusivity (m2/s)
Vicoww                            = 5.d-5                              # Uniform vertical eddy viscosity (m2/s)
Dicoww                            = 0.                                    # Uniform vertical eddy diffusivity (m2/s)
Vicwminb                          = 1.d-6                              # Minimum visc in prod and buoyancy term (m2/s)
Xlozmidov                         = 0.                                    # Ozmidov length scale (m), default=0.0, no contribution of internal waves to vertical diffusion
Smagorinsky                       = 0.2                                  # Smagorinsky factor in horizontal turbulence, e.g. 0.15
Elder                             = 0.                                    # Elder factor in horizontal turbulence
irov                              = 0                                      # 0=free slip, 1 = partial slip using wall_ks
wall_ks                           = 0.                                    # Wall roughness type (0: free slip, 1: partial slip using wall_ks)
Rhomean                           = 1023.                              # Average water density (kg/m3)
Idensform                         = 2                                      # Density calulation (0: uniform, 1: Eckart, 2: Unesco, 3: baroclinic case)
Ag                                = 9.813                              # Gravitational acceleration
TidalForcing                      = 0                                      # Tidal forcing, if jsferic=1 (0: no, 1: yes)
SelfAttractionLoading             = 0                                      # Self attraction and loading (0=no, 1=yes, 2=only self attraction)
ITcap                             = 0.                                    # Upper limit on internal tides dissipation (W/m^2)
Doodsonstart                      = 55.565                            # TRIWAQ: 55.565, D3D: 57.555
Doodsonstop                       = 375.575                          # TRIWAQ: 375.575, D3D: 275.555
Doodsoneps                        = 0.                                    # TRIWAQ = 0.0  400 cmps , D3D = 0.03   60 cmps
VillemonteCD1                     = 1.                                    # Calibration coefficient for Villemonte. Default = 1.0.  NB. For Bloemberg data set 0.8 is recommended.
VillemonteCD2                     = 10.                                  # Calibration coefficient for Villemonte. Default = 10.0. NB. For Bloemberg data set 0.8 is recommended.
Salinity                          = 1                                      # Include salinity, (0=no, 1=yes)
InitialSalinity                   = 29.                                  # Uniform initial salinity concentration (ppt)
Sal0abovezlev                     = -999.                              # Vertical level (m) above which salinity is set 0
DeltaSalinity                     = -999.                              # for testcases
Salimax                           = -999.                              # Limit the salinity
Salimin                           = 0.                                    # Limit the salinity
Backgroundsalinity                = 31.                                  # Background salinity for eqn. of state (ppt)
Backgroundwatertemperature        = 15.                                  # Background water temperature for eqn. of state (deg C)
Temperature                       = 5                                      # Include temperature (0: no, 1: only transport, 3: excess model of D3D, 5: composite (ocean) model)
InitialTemperature                = 5.                                    # Uniform initial water temperature (degC)
Secchidepth                       = 2.                                    # Water clarity parameter (m)
Stanton                           = 1.3d-3                            # Coefficient for convective heat flux, if negative, Ccon = abs(Stanton)*Cdwind
Dalton                            = 1.3d-3                            # Coefficient for evaporative heat flux, if negative, Ceva = abs(Dalton)*Cdwind
Tempmax                           = -999.                              # Limit the temperature
Tempmin                           = 0.                                    # Limit the temperature
Surftempsmofac                    = 0.                                    # Hor . Smoothing factor for surface water in heatflx comp. (0.0-1.0), 0=no
Soiltempthick                     = 0.1                                  # Use soil temperature buffer if > 0, e.g. 0.2 (m)
Heat_eachstep                     = 1                                      # 1=heat each timestep, 0=heat each usertimestep
SecondaryFlow                     = 0                                      # Secondary flow (0: no, 1: yes)
BetaSpiral                        = 0.                                    # Weight factor of the spiral flow intensity on flow dispersion stresses
Equili                            = 0                                      # Equilibrium spiral flow intensity (0: no, 1: yes)

[sediment]
Sedimentmodelnr                   = 0                                      # Sediment model nr, (0=no, 1=Krone, 2=SvR2007, 3=E-H, 4=MorphologyModule)
Nr_of_sedfractions                = 0                                      # Nr of sediment fractions, (specify the next parameters for each fraction)
MxgrKrone                         = 0                                      # Highest fraction index treated by Krone
Seddenscoupling                   = 0                                      # Sed rho coupling (0=no, 1 =yes

[veg]
Vegetationmodelnr                 = 0                                      # Vegetation model nr, (0=no, 1=Baptist DFM)
Clveg                             = 0.8                                  # Stem distance factor, default 0.8 ()
Cdveg                             = 0.7                                  # Stem Cd coefficient , default 0.7 ()
Cbveg                             = 0.                                    # Stem stiffness coefficient , default 0.7 ()
Rhoveg                            = 0.                                    # Stem Rho, if > 0, -> bouyant stick procedure, default 0.0 ()
Stemheightstd                     = 0.                                    # Stem height standard deviation fraction, e.g. 0.1  ()

[wind]
ICdtyp                            = 2                                      # Wind drag coefficient type (1=Const; 2=Smith&Banke (2 pts); 3=S&B (3 pts); 4=Charnock 1955, 5=Hwang 2005, 6=Wuest 2005, 7=Hersbach 2010 (2 pts)
Cdbreakpoints                     = 6.3d-4 7.23d-3            # Wind drag coefficient break points
Windspeedbreakpoints              = 0. 100.                          # Wind speed break points (m/s)
Relativewind                      = 0                                      # Wind speed relative to top-layer water speed, 1=yes, 0 = no)
Rhoair                            = 1.205                              # Air density (kg/m3)
PavBnd                            = 0.                                    # Average air pressure on open boundaries (N/m2) (only applied if > 0)
Pavini                            = 0.                                    # Average air pressure for initial water level correction (N/m2) (only applied if > 0)
Stericcorrection                  = 0                                      # Steric correction on waterlevel bnds, for which sal + temp should be prescribed

[grw]
groundwater                       = 0                                      # 0=No (horizontal) groundwater flow, 1=With groundwater flow
Infiltrationmodel                 = 0                                      # 0=No infiltration, 1=infiltration=interceptionlayer (with grw), 2=infiltration=Infiltrationcapacity, 3=model unsaturated/saturated (with grw) ( )
Hinterceptionlayer                = 0.                                    # Intercept this amount of rain (m)
UnifInfiltrationCapacity          = 0.                                    # Uniform maximum infiltration capacity (m/s)
Conductivity                      = 0.                                    # non dimensionless K conductivity   saturated (m/s), Q = K*A*i (m3/s)
h_aquiferuni                      = 20.                                  # bgrw = bl - h_aquiferuni (m), if negative, bgrw = bgrwuni
h_unsatini                        = 0.200000002980232      # initial level groundwater is bedlevel - h_unsatini (m), if negative, sgrw = sgrwini

[waves]
Wavemodelnr                       = 0                                      # Wave model nr. (0: none, 1: fetch/depth limited hurdlestive, 2: Young-Verhagen, 3: SWAN, 5: uniform
Wavenikuradse                     = 1.d-2                              # Wave friction Nikuradse ks coefficient (m), used in Krone-Swart
Rouwav                            = FR84                                # Friction model for wave induced shear stress: FR84 (default) or: MS90, HT91, GM79, DS88, BK67, CJ85, OY88, VR04
Gammax                            = 1.                                    # Maximum wave height/water depth ratio
uorbfac                           = 0                                      # Orbital velocities: 0=D3D style; 1=Guza style
jahissigwav                       = 1                                      # 1: sign wave height on his output; 0: hrms wave height on his output. Default=1.
jamapsigwav                       = 0                                      # 1: sign wave height on map output; 0: hrms wave height on map output. Default=0 (legacy behaviour).
hminlw                            = 0.2                                  # Cut-off depth for application of wave forces in momentum balance

[time]
RefDate                           = 20070101                        # Reference date (yyyymmdd)
Tzone                             = 0.                                    # Time zone assigned to input time series
DtUser                            = 300.                                # Time interval (s) for external forcing update
DtNodal                           = 0.                                    # Time interval (s) for updating nodal factors in astronomical boundary conditions
DtMax                             = 30.                                  # Maximal computation timestep (s)
Dtfacmax                          = 1.1                                  # Max timestep increase factor ( )
DtInit                            = 12.                                  # Initial computation timestep (s)
Timestepanalysis                  = 0                                      # 0=no, 1=see file *.steps
AutoTimestep                      = 5                                      # 0 = no, 1 = 2D (hor. out), 3=3D (hor. out), 5 = 3D (hor. inout + ver. inout), smallest dt
Autotimestepvisc                  = 0                                      # 0 = no, 1 = yes (Time limitation based on explicit diffusive term)
Tunit                             = M                                      # Time unit for start/stop times (D, H, M or S)
TStart                            = 437760.                          # Start time w.r.t. RefDate (in TUnit)
TStop                             = 446400.                          # Stop  time w.r.t. RefDate (in TUnit)

[restart]
RestartFile                       =                      # Restart netcdf-file, either *_rst.nc or *_map.nc
RestartDateTime                   =                      # Restart date and time (yyyymmddhhmmss) when restarting from *_map.nc

[external forcing]
ExtForceFile                      = Grevelingen-FM_bnd.ext# Old format for external forcings file *.ext, link with tim/cmp-format boundary conditions specification
ExtForceFileNew                   =                      # New format for external forcings file *.ext, link with bc-format boundary conditions specification
Rainfall                          = 0                                      # Include rainfall, (0=no, 1=yes)
QinExt                            = 0                                      # Include user Qin, externally provided, (0=no, 1=yes)
Evaporation                       = 0                                      # Include evaporation in water balance, (0=no, 1=yes)
WindExt                           = 1                                      # Include wind, externally provided, (0=no, 1=reserved for EC, 2=yes)

[trachytopes]
TrtRou                            = Y                                      # Include alluvial and vegetation roughness (trachytopes) (Y: yes, N: no)
TrtDef                            = ../../general/roughness/Grevelingen-FM_roughcombination_20190718.ttd# File (*.ttd) including trachytope definitions
TrtL                              = ../../general/roughness/Grevelingen-FM_trachytopes.arl# File (*.arl) including distribution of trachytope definitions
DtTrt                             = 300.                                # Trachytope roughness update time interval (s)
TrtMxR                            = 100                                  # Maximum recursion level for combined trachytope definitions
TrtCll                            =                      # Calibration factor file for roughness from trachytopes (see also [calibration] block)
TrtMnH                            = 0.1                                  # Minimum water depth for roughness computations
TrtMth                            = 1                                      # Area averaging method, (1=Nikuradse k based, 2=Chezy C based (parallel and serial))

[calibration]
UseCalibration                    = 1                                          # Activate calibration factor friction multiplier (1 = yes, 0 = no)
DefinitionFile                    = ../../general/roughness/Grevelingen-FM_Manning0_020.cld# File (*.cld) including calibration definitions
AreaFile                          = ../../general/roughness/Grevelingen-FM_calibration_sections.cll# File (*.cll) including area distribution of calibration definitions

[output]
OutputDir                         =                      # Output directory of map-, his-, rst-, dat- and timings-files, default: DFM_OUTPUT_<modelname>. Set to . for current dir.
FlowGeomFile                      =                      # Flow geometry NetCDF *_flowgeom.nc
ObsFile                           = ../../geometry/output_locations/Grevelingen-FM_20190731_obs.xyn# Points file *.xyn with observation stations with rows x, y, station name
CrsFile                           =                      # Polyline file *_crs.pli defining observation cross sections
FouFile                           =                      # Fourier analysis input file *.fou
FouUpdateStep                     = 1                                      # Fourier update step type: 0=every user time step, 1=every computational timestep.
HisFile                           =                      # HisFile name *_his.nc
MapFile                           =                      # MapFile name *_map.nc
HisInterval                       = 3600.                              # History output times, given as "interval" "start period" "end period" (s)
XLSInterval                       = 0.                                    # Interval (s) between XLS history
MapInterval                       = 172800.                          # Map file output, given as "interval" "start period" "end period" (s)
RstInterval                       = 0.                                    # Restart file output times, given as "interval" "start period" "end period" (s)
WaqOutputDir                      =                      # Output directory of WAQ communication files (flowgeom, vol, flo, etc.), default: DFM_DELWAQ_<modelname>. Set to . for current dir.
WaqInterval                       = 0.                                    # DELWAQ output times, given as "interval" "start period" "end period" (s)
ClassMapInterval                  = 0.                                    # Class map output times, given as "interval" "start period" "end period" (s)
ClassMapFile                      =                      # ClassMapFile name *_clm.nc
WaterlevelClasses                 =                      # Class map's list of class values for water levels
WaterDepthClasses                 =                      # Class map's list of class values for water depths
VelocityMagnitudeClasses          =                      # Class map's list of class values for velocity magnitudes
StatsInterval                     = 0.                                    # Screen step output interval in seconds simulation time, if negative in seconds wall clock time
WriteBalancefile                  = 0                                      # Write balance file (1: yes, 0: no)
TimingsInterval                   = 0.                                    # Timings statistics output interval
TimeSplitInterval                 = 0 s                                  # Time splitting interval, after which a new output file is started. value+unit, e.g. '1 M', valid units: Y,M,D,h,m,s.
MapFormat                         = 4                                      # Map file format, 1: netCDF, 2: Tecplot, 3: netCFD and Tecplot, 4: NetCDF-UGRID
NcFormat                          = 3                                      # Format for all NetCDF output files (3: classic, 4: NetCDF4+HDF5)
Wrihis_balance                    = 1                                      # Write mass balance totals to his file (1: yes, 0: no)
Wrihis_sourcesink                 = 1                                      # Write sources-sinks statistics to his file (1=yes, 0=no)
Wrihis_structure_gen              = 1                                      # Write general structure parameters to his file (1: yes, 0: no)
Wrihis_structure_dam              = 1                                      # Write dam parameters to his file (1: yes, 0: no)
Wrihis_structure_pump             = 1                                      # Write pump parameters to his file (1: yes, 0: no)
Wrihis_structure_gate             = 1                                      # Write gate parameters to his file (1: yes, 0: no)
Wrihis_structure_weir             = 1                                      # Write weir parameters to his file (1: yes, 0: no)
Wrihis_turbulence                 = 1                                      # Write k, eps and vicww to his file (1: yes, 0: no)
Wrihis_wind                       = 1                                      # Write wind velocities to his file (1: yes, 0: no)
Wrihis_rain                       = 1                                      # Write precipitation to his file (1: yes, 0: no)
Wrihis_temperature                = 1                                      # Write temperature to his file (1: yes, 0: no)
Wrihis_waves                      = 1                                      # Write wave data to his file (1: yes, 0: no)
Wrihis_heat_fluxes                = 0                                      # Write heat fluxes to his file (1: yes, 0: no)
Wrihis_salinity                   = 1                                      # Write salinity to his file (1: yes, 0: no)
Wrihis_density                    = 1                                      # Write density to his file (1: yes, 0: no)
Wrihis_waterlevel_s1              = 1                                      # Write water level to his file (1: yes, 0: no)
Wrihis_bedlevel                   = 1                                      # Write bed level to his file (1: yes, 0: no)
Wrihis_waterdepth                 = 1                                      # Write waterd epth to his file (1: yes, 0: no)
Wrihis_velocity_vector            = 1                                      # Write velocity vectors to his file (1: yes, 0: no)
Wrihis_upward_velocity_component  = 0                                      # Write upward velocity to his file (1: yes, 0: no)
Wrihis_sediment                   = 1                                      # Write sediment transport to his file (1: yes, 0: no)
Wrihis_constituents               = 1                                      # Write tracers to his file (1: yes, 0: no)
Wrihis_zcor                       = 1                                      # Write vertical coordinates to his file (1: yes, 0: no)
Wrimap_waterlevel_s0              = 1                                      # Write water levels for previous time step to map file (1: yes, 0: no)
Wrimap_waterlevel_s1              = 1                                      # Write water levels to map file (1: yes, 0: no)
Wrimap_volume1                    = 0                                      # Write volumes to map file (1: yes, 0: no)
Wrimap_waterdepth_hu              = 0                                      # Write water depths on u-points to map file (1: yes, 0: no)
Wrimap_ancillary_variables        = 0                                      # Write ancillary_variables attributes to map file (1: yes, 0: no)
Wrimap_flowarea_au                = 0                                      # Write flow areas au to map file (1: yes, 0: no)
Wrimap_velocity_component_u0      = 1                                      # Write velocity component for previous time step to map file (1: yes, 0: no)
Wrimap_velocity_component_u1      = 1                                      # Write velocity component to map file (1: yes, 0: no)
Wrimap_velocity_vector            = 1                                      # Write cell-center velocity vectors to map file (1: yes, 0: no)
Wrimap_velocity_magnitude         = 1                                      # Write cell-center velocity vector magnitude to map file (1: yes, 0: no)
Wrimap_velocity_vectorq           = 0                                      # Write cell-center velocity vectors (discharge-based) to map file (1: yes, 0: no)
Wrimap_upward_velocity_component  = 0                                      # Write upward velocity component on cell interfaces (1: yes, 0: no)
Wrimap_density_rho                = 1                                      # Write flow density to map file (1: yes, 0: no)
Wrimap_horizontal_viscosity_viu   = 1                                      # Write horizontal viscosity to map file (1: yes, 0: no)
Wrimap_horizontal_diffusivity_diu = 1                                      # Write horizontal diffusivity to map file (1: yes, 0: no)
Wrimap_flow_flux_q1               = 1                                      # Write flow flux to map file (1: yes, 0: no)
Wrimap_flow_flux_q1_main          = 0                                      # Write flow flux in main channel to map file (1: yes, 0: no)
Wrimap_numlimdt                   = 1                                      # Write the number times a cell was Courant limiting to map file (1: yes, 0: no)
Wrimap_taucurrent                 = 1                                      # Write the shear stress to map file (1: yes, 0: no)
Wrimap_chezy                      = 1                                      # Write the chezy roughness to map file (1: yes, 0: no)
Wrimap_salinity                   = 1                                      # Write salinity to map file (1: yes, 0: no)
Wrimap_temperature                = 1                                      # Write temperature to map file (1: yes, 0: no)
Wrimap_turbulence                 = 1                                      # Write vicww, k and eps to map file (1: yes, 0: no)
Wrimap_trachytopes                = 1                                      # Write trachytope roughnesses to map file (1: yes, 0: no)
Wrimap_calibration                = 1                                      # Write roughness calibration factors to map file (1: yes, 0: no)
Wrimap_wind                       = 1                                      # Write wind velocities to map file (1: yes, 0: no)
Writek_CdWind                     = 1                                      # Write wind friction coeffs to tek file (1: yes, 0: no)
Wrimap_heat_fluxes                = 0                                      # Write heat fluxes to map file (1: yes, 0: no)
Wrimap_DTcell                     = 0                                      # Write time step per cell based on CFL (1: yes, 0: no)
Writepart_domain                  = 1                                      # Write partition domain info. for postprocessing
Richardsononoutput                = 1                                      # Write Richardson numbers (1: yes, 0: no)
Wrishp_crs                        = 0                                      # Write grid-snapped cross sections to shapefile (1: yes, 0: no)
Wrishp_obs                        = 0                                      # Write grid-snapped observation stations to shapefile (1: yes, 0: no)
Wrishp_weir                       = 0                                      # Write grid-snapped weirs to shapefile (1: yes, 0: no)
Wrishp_thd                        = 0                                      # Write grid-snapped thin dams to shapefile (1: yes, 0: no)
Wrishp_gate                       = 0                                      # Write grid-snapped gates to shapefile (1: yes, 0: no)
Wrishp_emb                        = 0                                      # Write grid-snapped 1d2d embankments to shapefile (1: yes, 0: no)
Wrishp_fxw                        = 0                                      # Write grid-snapped fixed weirs to shapefile (1: yes, 0: no)
Wrishp_src                        = 0                                      # Write grid-snapped source-sinks to shapefile (1: yes, 0: no)
Wrishp_pump                       = 0                                      # Write grid-snapped pumps to shapefile (1: yes, 0: no)
Wrishp_dryarea                    = 0                                      # Write a shape file for dry areas
wrishp_genstruc                   = 0                                      # Write a shape file for general structures
WriteDFMinterpretedvalues         = 0                                      # Write DFMinterpretedvalues (1: yes, 0: no)
MapOutputTimeVector               =                      # File (*.mpt) containing fixed map output times (s) w.r.t. RefDate
FullGridOutput                    = 0                                      # Full grid output mode (0: compact, 1: full time-varying grid data)
EulerVelocities                   = 0                                      # Euler velocities output (0: GLM, 1: Euler velocities)
Wrirst_bnd                        = 1                                      # Write waterlevel, bedlevel and coordinates of boundaries to restart files

[processes]
SubstanceFile                     = 
AdditionalHistoryOutputFile       = 
ThetaVertical                     = 0.                                    # theta vertical for waq
DtProcesses                       = 0.                                    # waq processes time step
DtMassBalance                     = 0.                                    # waq mass balance output time step
ProcessFluxIntegration            = 1                                      # Process fluxes integration option (1: WAQ, 2: D-Flow FM)
